*HEADING
Cantilever modal benchmark
*NODE
1, 0.0, 0.0, 0.0
2, 4.0, 0.0, 0.0
3, 4.0, 0.5, 0.0
4, 0.0, 0.5, 0.0
5, 0.12499999999976176, 0.0, 0.0
6, 0.24999999999949166, 0.0, 0.0
7, 0.3749999999992948, 0.0, 0.0
8, 0.49999999999909245, 0.0, 0.0
9, 0.6249999999987383, 0.0, 0.0
10, 0.7499999999983735, 0.0, 0.0
11, 0.8749999999980086, 0.0, 0.0
12, 0.9999999999976438, 0.0, 0.0
13, 1.1249999999972788, 0.0, 0.0
14, 1.249999999996914, 0.0, 0.0
15, 1.3749999999965492, 0.0, 0.0
16, 1.4999999999961844, 0.0, 0.0
17, 1.6249999999958196, 0.0, 0.0
18, 1.7499999999954545, 0.0, 0.0
19, 1.8749999999950897, 0.0, 0.0
20, 1.9999999999947684, 0.0, 0.0
** ... 145 like lines cut
*ELEMENT, TYPE=CPS4, ELSET=EALL
1, 1, 5, 73, 72
2, 72, 73, 74, 71
3, 71, 74, 75, 70
4, 70, 75, 69, 4
5, 5, 6, 76, 73
6, 73, 76, 77, 74
7, 74, 77, 78, 75
8, 75, 78, 68, 69
9, 6, 7, 79, 76
10, 76, 79, 80, 77
11, 77, 80, 81, 78
12, 78, 81, 67, 68
13, 7, 8, 82, 79
14, 79, 82, 83, 80
15, 80, 83, 84, 81
16, 81, 84, 66, 67
17, 8, 9, 85, 82
18, 82, 85, 86, 83
19, 83, 86, 87, 84
20, 84, 87, 65, 66
** ... 108 like lines cut
*MATERIAL, NAME=STEEL
*ELASTIC
210000000000.0, 0.3
*DENSITY
7850.0
*SOLID SECTION, ELSET=EALL, MATERIAL=STEEL
0.1
*BOUNDARY
1, 1, 2, 0.0
4, 1, 2, 0.0
70, 1, 2, 0.0
71, 1, 2, 0.0
72, 1, 2, 0.0
*STEP
*FREQUENCY
5
*END STEP
