*HEADING
Column Seismic THA
*NODE
1, 0.0, 0.0, 0.0
2, 1.0, 0.0, 0.0
3, 1.0, 8.0, 0.0
4, 0.0, 8.0, 0.0
5, 0.24999999999941094, 0.0, 0.0
6, 0.4999999999986921, 0.0, 0.0
7, 0.7499999999993406, 0.0, 0.0
8, 1.0, 0.24999999999952352, 0.0
9, 1.0, 0.4999999999989833, 0.0
10, 1.0, 0.7499999999985896, 0.0
11, 1.0, 0.9999999999981849, 0.0
12, 1.0, 1.2499999999974767, 0.0
13, 1.0, 1.499999999996747, 0.0
14, 1.0, 1.7499999999960172, 0.0
15, 1.0, 1.9999999999952875, 0.0
16, 1.0, 2.2499999999945577, 0.0
17, 1.0, 2.499999999993828, 0.0
18, 1.0, 2.7499999999930984, 0.0
19, 1.0, 2.9999999999923688, 0.0
20, 1.0, 3.249999999991639, 0.0
** ... 145 like lines cut
*ELEMENT, TYPE=CPS4, ELSET=EALL
1, 1, 5, 73, 72
2, 72, 73, 74, 71
3, 71, 74, 75, 70
4, 70, 75, 76, 69
5, 69, 76, 77, 68
6, 68, 77, 78, 67
7, 67, 78, 79, 66
8, 66, 79, 80, 65
9, 65, 80, 81, 64
10, 64, 81, 82, 63
11, 63, 82, 83, 62
12, 62, 83, 84, 61
13, 61, 84, 85, 60
14, 60, 85, 86, 59
15, 59, 86, 87, 58
16, 58, 87, 88, 57
17, 57, 88, 89, 56
18, 56, 89, 90, 55
19, 55, 90, 91, 54
20, 54, 91, 92, 53
** ... 108 like lines cut
*MATERIAL, NAME=CONCRETE
*ELASTIC
30000000000.0, 0.2
*DENSITY
2500.0
*DAMPING, ALPHA=0.749708, BETA=0.001657
*SOLID SECTION, ELSET=EALL, MATERIAL=CONCRETE
1.0
*BOUNDARY
1, 1, 2, 0.0
2, 1, 2, 0.0
5, 1, 2, 0.0
6, 1, 2, 0.0
7, 1, 2, 0.0
*NSET, NSET=NTOPMID
39,
*AMPLITUDE, NAME=EQACCEL
0.000000, 1.384986e-05, 0.010000, 1.370144e-05, 0.020000, 1.371164e-05, 0.030000, 1.358632e-05
0.040000, 1.362758e-05, 0.050000, 1.348084e-05, 0.060000, 1.350777e-05, 0.070000, 1.335431e-05
0.080000, 1.336329e-05, 0.090000, 1.319204e-05, 0.100000, 1.321089e-05, 0.110000, 1.336876e-05
0.120000, 1.291040e-05, 0.130000, 1.290835e-05, 0.140000, 1.296554e-05, 0.150000, 1.292887e-05
0.160000, 1.312229e-05, 0.170000, 1.278066e-05, 0.180000, 1.260035e-05, 0.190000, 1.272885e-05
0.200000, 1.252335e-05, 0.210000, 1.282529e-05, 0.220000, 1.268108e-05, 0.230000, 1.289200e-05
0.240000, 1.209890e-05, 0.250000, 1.235107e-05, 0.260000, 1.408872e-05, 0.270000, 9.444633e-06
0.280000, 1.448112e-05, 0.290000, 1.028404e-05, 0.300000, 1.464607e-05, 0.310000, 9.314499e-06
0.320000, 1.403986e-05, 0.330000, 8.397690e-06, 0.340000, 1.590734e-05, 0.350000, 6.246787e-06
0.360000, 1.528331e-05, 0.370000, 7.130820e-06, 0.380000, 1.536361e-05, 0.390000, 6.333094e-06
0.400000, 1.413436e-05, 0.410000, 7.309433e-06, 0.420000, 1.335384e-05, 0.430000, 4.777109e-06
0.440000, 1.463566e-05, 0.450000, 4.030371e-06, 0.460000, 1.940199e-05, 0.470000, 2.343460e-06
0.480000, 1.642989e-05, 0.490000, 4.509887e-06, 0.500000, 1.784801e-05, 0.510000, 1.632486e-06
0.520000, 1.664147e-05, 0.530000, 1.900291e-06, 0.540000, 2.048759e-05, 0.550000, 2.527654e-06
0.560000, 1.241381e-05, 0.570000, 1.028313e-05, 0.580000, 8.679659e-06, 0.590000, 9.733867e-06
0.600000, 8.775036e-06, 0.610000, 1.098275e-05, 0.620000, 1.106426e-05, 0.630000, 1.287249e-05
0.640000, 9.281041e-06, 0.650000, 5.537048e-06, 0.660000, 9.558058e-06, 0.670000, 8.787624e-06
0.680000, 1.027101e-05, 0.690000, 8.906280e-06, 0.700000, 1.136722e-05, 0.710000, 1.024810e-05
0.720000, 1.334940e-05, 0.730000, 1.156006e-05, 0.740000, -3.559781e-07, 0.750000, 8.705529e-06
0.760000, 1.721053e-05, 0.770000, 8.990435e-06, 0.780000, -1.157740e-07, 0.790000, 7.251152e-06
** ... 1378 like lines cut
*STEP, INC=100000
*DYNAMIC, DIRECT, ALPHA=0.0, BETA=0.25, GAMMA=0.5
0.01, 55.9, 0.01, 0.01
*DLOAD, AMPLITUDE=EQACCEL
EALL, GRAV, 9.80665, -1., 0., 0.
*NODE FILE
U
*NODE PRINT, NSET=NTOPMID
U
*END STEP
